CM pyramid
CM edge length        a  = 50cm
CM segment resistance Rs = 15k
CM segments per side  Ns = 30
CE End comments
GW   100     1 -1.25000E-01  1.44338E-01 -1.17062E-01 -1.87500E-01  3.60844E-02 -1.17062E-01  1.00000E-03
GW   101     2  3.46945E-17  1.44338E-01 -1.17062E-01 -1.25000E-01 -7.21688E-02 -1.17062E-01  1.00000E-03
GW   102     3  1.25000E-01  1.44338E-01 -1.17062E-01 -6.25000E-02 -1.80422E-01 -1.17062E-01  1.00000E-03
GW   103     4  2.50000E-01  1.44338E-01 -1.17062E-01 -2.77556E-17 -2.88675E-01 -1.17062E-01  1.00000E-03
GW   104     1 -6.25000E-02 -1.80422E-01 -1.17062E-01  6.25000E-02 -1.80422E-01 -1.17062E-01  1.00000E-03
GW   105     2 -1.25000E-01 -7.21688E-02 -1.17062E-01  1.25000E-01 -7.21688E-02 -1.17062E-01  1.00000E-03
GW   106     3 -1.87500E-01  3.60844E-02 -1.17062E-01  1.87500E-01  3.60844E-02 -1.17062E-01  1.00000E-03
GW   107     4 -2.50000E-01  1.44338E-01 -1.17062E-01  2.50000E-01  1.44338E-01 -1.17062E-01  1.00000E-03
GW   108     1  1.87500E-01  3.60844E-02 -1.17062E-01  1.25000E-01  1.44338E-01 -1.17062E-01  1.00000E-03
GW   109     2  1.25000E-01 -7.21688E-02 -1.17062E-01  9.71445E-17  1.44338E-01 -1.17062E-01  1.00000E-03
GW   110     3  6.25000E-02 -1.80422E-01 -1.17062E-01 -1.25000E-01  1.44338E-01 -1.17062E-01  1.00000E-03
GW   111     4 -2.22045E-16 -2.88675E-01 -1.17062E-01 -2.50000E-01  1.44338E-01 -1.17062E-01  1.00000E-03
GW   112     1  6.25000E-02  5.02265E-02  2.09124E-01 -6.25000E-02  5.02265E-02  2.09124E-01  1.00000E-03
GW   113     2  1.25000E-01  8.63109E-02  1.07062E-01 -1.25000E-01  8.63109E-02  1.07062E-01  1.00000E-03
GW   114     3  1.87500E-01  1.22395E-01  5.00000E-03 -1.87500E-01  1.22395E-01  5.00000E-03  1.00000E-03
GW   115     4  2.50000E-01  1.58480E-01 -9.70621E-02 -2.50000E-01  1.58480E-01 -9.70621E-02  1.00000E-03
GW   116     1 -1.87500E-01  1.22395E-01  5.00000E-03 -1.25000E-01  1.58480E-01 -9.70621E-02  1.00000E-03
GW   117     2 -1.25000E-01  8.63109E-02  1.07062E-01 -4.16334E-17  1.58480E-01 -9.70621E-02  1.00000E-03
GW   118     3 -6.25000E-02  5.02265E-02  2.09124E-01  1.25000E-01  1.58480E-01 -9.70621E-02  1.00000E-03
GW   119     4  1.11022E-16  1.41421E-02  3.11186E-01  2.50000E-01  1.58480E-01 -9.70621E-02  1.00000E-03
GW   120     1  1.25000E-01  1.58480E-01 -9.70621E-02  1.87500E-01  1.22395E-01  5.00000E-03  1.00000E-03
GW   121     2 -6.24500E-17  1.58480E-01 -9.70621E-02  1.25000E-01  8.63109E-02  1.07062E-01  1.00000E-03
GW   122     3 -1.25000E-01  1.58480E-01 -9.70621E-02  6.25000E-02  5.02265E-02  2.09124E-01  1.00000E-03
GW   123     4 -2.50000E-01  1.58480E-01 -9.70621E-02  8.32667E-17  1.41421E-02  3.11186E-01  1.00000E-03
GW   124     1 -7.47474E-02  2.90133E-02  2.09124E-01 -1.22474E-02 -7.92399E-02  2.09124E-01  1.00000E-03
GW   125     2 -1.37247E-01  6.50977E-02  1.07062E-01 -1.22474E-02 -1.51409E-01  1.07062E-01  1.00000E-03
GW   126     3 -1.99747E-01  1.01182E-01  5.00000E-03 -1.22474E-02 -2.23577E-01  5.00000E-03  1.00000E-03
GW   127     4 -2.62247E-01  1.37266E-01 -9.70621E-02 -1.22474E-02 -2.95746E-01 -9.70621E-02  1.00000E-03
GW   128     1 -1.22474E-02 -2.23577E-01  5.00000E-03 -7.47474E-02 -1.87493E-01 -9.70621E-02  1.00000E-03
GW   129     2 -1.22474E-02 -1.51409E-01  1.07062E-01 -1.37247E-01 -7.92399E-02 -9.70621E-02  1.00000E-03
GW   130     3 -1.22474E-02 -7.92399E-02  2.09124E-01 -1.99747E-01  2.90133E-02 -9.70621E-02  1.00000E-03
GW   131     4 -1.22474E-02 -7.07107E-03  3.11186E-01 -2.62247E-01  1.37266E-01 -9.70621E-02  1.00000E-03
GW   132     1 -1.99747E-01  2.90133E-02 -9.70621E-02 -1.99747E-01  1.01182E-01  5.00000E-03  1.00000E-03
GW   133     2 -1.37247E-01 -7.92399E-02 -9.70621E-02 -1.37247E-01  6.50977E-02  1.07062E-01  1.00000E-03
GW   134     3 -7.47474E-02 -1.87493E-01 -9.70621E-02 -7.47474E-02  2.90133E-02  2.09124E-01  1.00000E-03
GW   135     4 -1.22474E-02 -2.95746E-01 -9.70621E-02 -1.22474E-02 -7.07107E-03  3.11186E-01  1.00000E-03
GW   136     1  1.22474E-02 -7.92399E-02  2.09124E-01  7.47474E-02  2.90133E-02  2.09124E-01  1.00000E-03
GW   137     2  1.22474E-02 -1.51409E-01  1.07062E-01  1.37247E-01  6.50977E-02  1.07062E-01  1.00000E-03
GW   138     3  1.22474E-02 -2.23577E-01  5.00000E-03  1.99747E-01  1.01182E-01  5.00000E-03  1.00000E-03
GW   139     4  1.22474E-02 -2.95746E-01 -9.70621E-02  2.62247E-01  1.37266E-01 -9.70621E-02  1.00000E-03
GW   140     1  1.99747E-01  1.01182E-01  5.00000E-03  1.99747E-01  2.90133E-02 -9.70621E-02  1.00000E-03
GW   141     2  1.37247E-01  6.50977E-02  1.07062E-01  1.37247E-01 -7.92399E-02 -9.70621E-02  1.00000E-03
GW   142     3  7.47474E-02  2.90133E-02  2.09124E-01  7.47474E-02 -1.87493E-01 -9.70621E-02  1.00000E-03
GW   143     4  1.22474E-02 -7.07107E-03  3.11186E-01  1.22474E-02 -2.95746E-01 -9.70621E-02  1.00000E-03
GW   144     1  7.47474E-02 -1.87493E-01 -9.70621E-02  1.22474E-02 -2.23577E-01  5.00000E-03  1.00000E-03
GW   145     2  1.37247E-01 -7.92399E-02 -9.70621E-02  1.22474E-02 -1.51409E-01  1.07062E-01  1.00000E-03
GW   146     3  1.99747E-01  2.90133E-02 -9.70621E-02  1.22474E-02 -7.92399E-02  2.09124E-01  1.00000E-03
GW   147     4  2.62247E-01  1.37266E-01 -9.70621E-02  1.22474E-02 -7.07107E-03  3.11186E-01  1.00000E-03
SP     0     0  6.49467E-18  1.06066E-01  8.98146E-02  2.10000E+01  9.00000E+01  2.50000E-01  0.00000E+00
SP     0     0 -9.18559E-02 -5.30330E-02  8.98146E-02  2.10000E+01  2.10000E+02  2.50000E-01  0.00000E+00
SP     0     0  9.18559E-02 -5.30330E-02  8.98146E-02  2.10000E+01  3.30000E+02  2.50000E-01  0.00000E+00
SP     0     0  0.00000E+00  0.00000E+00 -1.30639E-01  9.00000E+01  0.00000E+00  2.50000E-01  0.00000E+00
GW     1    25 -5.00000E-02  0.00000E+00  3.60844E-02  5.00000E-02  0.00000E+00  3.60844E-02  1.00000E-03
GW    30    25  0.00000E+00 -5.00000E-02 -3.60844E-02  0.00000E+00  5.00000E-02 -3.60844E-02  1.00000E-03
GE     0     0  0.00000E+00  0.00000E+00  0.00000E+00  0.00000E+00  0.00000E+00  0.00000E+00  0.00000E+00
FR     0    25     0      0  5.00000E+01  5.00000E+01  0.00000E+00  0.00000E+00  0.00000E+00  0.00000E+00
EX     0     1    13      0  1.00000E+00  0.00000E+00  0.00000E+00  0.00000E+00  0.00000E+00  0.00000E+00
LD     5     0     0      0  5.80000E+07  0.00000E+00  0.00000E+00  0.00000E+00  0.00000E+00  0.00000E+00
LD     5   100     0      0  1.05000E+01  0.00000E+00  0.00000E+00  0.00000E+00  0.00000E+00  0.00000E+00
LD     5   101     0      0  1.05000E+01  0.00000E+00  0.00000E+00  0.00000E+00  0.00000E+00  0.00000E+00
LD     5   102     0      0  1.05000E+01  0.00000E+00  0.00000E+00  0.00000E+00  0.00000E+00  0.00000E+00
LD     5   103     0      0  1.05000E+01  0.00000E+00  0.00000E+00  0.00000E+00  0.00000E+00  0.00000E+00
LD     5   104     0      0  1.05000E+01  0.00000E+00  0.00000E+00  0.00000E+00  0.00000E+00  0.00000E+00
LD     5   105     0      0  1.05000E+01  0.00000E+00  0.00000E+00  0.00000E+00  0.00000E+00  0.00000E+00
LD     5   106     0      0  1.05000E+01  0.00000E+00  0.00000E+00  0.00000E+00  0.00000E+00  0.00000E+00
LD     5   107     0      0  1.05000E+01  0.00000E+00  0.00000E+00  0.00000E+00  0.00000E+00  0.00000E+00
LD     5   108     0      0  1.05000E+01  0.00000E+00  0.00000E+00  0.00000E+00  0.00000E+00  0.00000E+00
LD     5   109     0      0  1.05000E+01  0.00000E+00  0.00000E+00  0.00000E+00  0.00000E+00  0.00000E+00
LD     5   110     0      0  1.05000E+01  0.00000E+00  0.00000E+00  0.00000E+00  0.00000E+00  0.00000E+00
LD     5   111     0      0  1.05000E+01  0.00000E+00  0.00000E+00  0.00000E+00  0.00000E+00  0.00000E+00
LD     5   112     0      0  1.05000E+01  0.00000E+00  0.00000E+00  0.00000E+00  0.00000E+00  0.00000E+00
LD     5   113     0      0  1.05000E+01  0.00000E+00  0.00000E+00  0.00000E+00  0.00000E+00  0.00000E+00
LD     5   114     0      0  1.05000E+01  0.00000E+00  0.00000E+00  0.00000E+00  0.00000E+00  0.00000E+00
LD     5   115     0      0  1.05000E+01  0.00000E+00  0.00000E+00  0.00000E+00  0.00000E+00  0.00000E+00
LD     5   116     0      0  1.05000E+01  0.00000E+00  0.00000E+00  0.00000E+00  0.00000E+00  0.00000E+00
LD     5   117     0      0  1.05000E+01  0.00000E+00  0.00000E+00  0.00000E+00  0.00000E+00  0.00000E+00
LD     5   118     0      0  1.05000E+01  0.00000E+00  0.00000E+00  0.00000E+00  0.00000E+00  0.00000E+00
LD     5   119     0      0  1.05000E+01  0.00000E+00  0.00000E+00  0.00000E+00  0.00000E+00  0.00000E+00
LD     5   120     0      0  1.05000E+01  0.00000E+00  0.00000E+00  0.00000E+00  0.00000E+00  0.00000E+00
LD     5   121     0      0  1.05000E+01  0.00000E+00  0.00000E+00  0.00000E+00  0.00000E+00  0.00000E+00
LD     5   122     0      0  1.05000E+01  0.00000E+00  0.00000E+00  0.00000E+00  0.00000E+00  0.00000E+00
LD     5   123     0      0  1.05000E+01  0.00000E+00  0.00000E+00  0.00000E+00  0.00000E+00  0.00000E+00
LD     5   124     0      0  1.05000E+01  0.00000E+00  0.00000E+00  0.00000E+00  0.00000E+00  0.00000E+00
LD     5   125     0      0  1.05000E+01  0.00000E+00  0.00000E+00  0.00000E+00  0.00000E+00  0.00000E+00
LD     5   126     0      0  1.05000E+01  0.00000E+00  0.00000E+00  0.00000E+00  0.00000E+00  0.00000E+00
LD     5   127     0      0  1.05000E+01  0.00000E+00  0.00000E+00  0.00000E+00  0.00000E+00  0.00000E+00
LD     5   128     0      0  1.05000E+01  0.00000E+00  0.00000E+00  0.00000E+00  0.00000E+00  0.00000E+00
LD     5   129     0      0  1.05000E+01  0.00000E+00  0.00000E+00  0.00000E+00  0.00000E+00  0.00000E+00
LD     5   130     0      0  1.05000E+01  0.00000E+00  0.00000E+00  0.00000E+00  0.00000E+00  0.00000E+00
LD     5   131     0      0  1.05000E+01  0.00000E+00  0.00000E+00  0.00000E+00  0.00000E+00  0.00000E+00
LD     5   132     0      0  1.05000E+01  0.00000E+00  0.00000E+00  0.00000E+00  0.00000E+00  0.00000E+00
LD     5   133     0      0  1.05000E+01  0.00000E+00  0.00000E+00  0.00000E+00  0.00000E+00  0.00000E+00
LD     5   134     0      0  1.05000E+01  0.00000E+00  0.00000E+00  0.00000E+00  0.00000E+00  0.00000E+00
LD     5   135     0      0  1.05000E+01  0.00000E+00  0.00000E+00  0.00000E+00  0.00000E+00  0.00000E+00
LD     5   136     0      0  1.05000E+01  0.00000E+00  0.00000E+00  0.00000E+00  0.00000E+00  0.00000E+00
LD     5   137     0      0  1.05000E+01  0.00000E+00  0.00000E+00  0.00000E+00  0.00000E+00  0.00000E+00
LD     5   138     0      0  1.05000E+01  0.00000E+00  0.00000E+00  0.00000E+00  0.00000E+00  0.00000E+00
LD     5   139     0      0  1.05000E+01  0.00000E+00  0.00000E+00  0.00000E+00  0.00000E+00  0.00000E+00
LD     5   140     0      0  1.05000E+01  0.00000E+00  0.00000E+00  0.00000E+00  0.00000E+00  0.00000E+00
LD     5   141     0      0  1.05000E+01  0.00000E+00  0.00000E+00  0.00000E+00  0.00000E+00  0.00000E+00
LD     5   142     0      0  1.05000E+01  0.00000E+00  0.00000E+00  0.00000E+00  0.00000E+00  0.00000E+00
LD     5   143     0      0  1.05000E+01  0.00000E+00  0.00000E+00  0.00000E+00  0.00000E+00  0.00000E+00
LD     5   144     0      0  1.05000E+01  0.00000E+00  0.00000E+00  0.00000E+00  0.00000E+00  0.00000E+00
LD     5   145     0      0  1.05000E+01  0.00000E+00  0.00000E+00  0.00000E+00  0.00000E+00  0.00000E+00
LD     5   146     0      0  1.05000E+01  0.00000E+00  0.00000E+00  0.00000E+00  0.00000E+00  0.00000E+00
LD     5   147     0      0  1.05000E+01  0.00000E+00  0.00000E+00  0.00000E+00  0.00000E+00  0.00000E+00
NH     0     0     0      0  0.00000E+00  0.00000E+00  0.00000E+00  0.00000E+00  0.00000E+00  0.00000E+00
NE     0    20    15      1 -1.40000E+00 -1.40000E+00  5.00000E-02  2.00000E-01  2.00000E-01  0.00000E+00
RP     0    72    72   1000  0.00000E+00  0.00000E+00  5.00000E+00  5.00000E+00  0.00000E+00  0.00000E+00
EN     0     0     0      0  0.00000E+00  0.00000E+00  0.00000E+00  0.00000E+00  0.00000E+00  0.00000E+00
